TLTK/Dynamic Thay Huy/Vi du minh hoa/Vd 04 - Power oscillations/Kundur System/kundur_case.raw
0,   100.00, 33, 0, 1, 60.00     / PSS(R)E-33.4    FRI, SEP 30 2016  18:01
KUNDUR 4 MACHINE 12 BUS SYSTEM

     1,'1           ',  22.0000,2,   1,   1,   1,1.03000,  20.9810,1.10000,0.90000,1.10000,0.90000
     2,'2           ',  22.0000,2,   1,   1,   1,1.01000,  11.2191,1.10000,0.90000,1.10000,0.90000
     3,'3           ',  22.0000,3,   2,   2,   2,1.03000,  -6.8000,1.10000,0.90000,1.10000,0.90000
     4,'4           ',  22.0000,2,   2,   2,   2,1.01000, -16.9318,1.10000,0.90000,1.10000,0.90000
     5,'5           ', 230.0000,1,   1,   1,   1,1.00658,  14.5069,1.10000,0.90000,1.10000,0.90000
     6,'6           ', 230.0000,1,   1,   1,   1,0.97852,   4.4260,1.10000,0.90000,1.10000,0.90000
     7,'7           ', 230.0000,1,   1,   1,   1,0.96177,  -3.9754,1.10000,0.90000,1.10000,0.90000
     8,'8           ', 230.0000,1,   1,   1,   1,0.95106, -17.8098,1.10000,0.90000,1.10000,0.90000
     9,'9           ', 230.0000,1,   2,   2,   2,0.97512, -31.3293,1.10000,0.90000,1.10000,0.90000
    10,'10          ', 230.0000,1,   2,   2,   2,0.98704, -22.9777,1.10000,0.90000,1.10000,0.90000
    11,'11          ', 230.0000,1,   2,   2,   2,1.01141, -12.7402,1.10000,0.90000,1.10000,0.90000
    12,'12          ', 230.0000,1,   2,   2,   2,0.95106, -17.8098,1.10000,0.90000,1.10000,0.90000
0 / END OF BUS DATA, BEGIN LOAD DATA
     7,'1 ',1,   1,   1,   967.000,   100.000,     0.000,     0.000,     0.000,     0.000,   1,1,0
     9,'1 ',1,   2,   2,  1767.000,   100.000,     0.000,     0.000,     0.000,     0.000,   2,1,0
0 / END OF LOAD DATA, BEGIN FIXED SHUNT DATA
     7,'1 ',1,     0.000,   200.000
     9,'1 ',1,     0.000,   350.000
0 / END OF FIXED SHUNT DATA, BEGIN GENERATOR DATA
     1,'1 ',   700.000,   184.048,   500.000,  -100.000,1.03000,     0,   900.000, 0.00000E+0, 2.50000E-1, 0.00000E+0, 0.00000E+0,1.00000,1,  100.0,  9999.000, -9999.000,   1,1.0000
     2,'1 ',   700.000,   231.942,   500.000,  -100.000,1.01000,     0,   900.000, 0.00000E+0, 2.50000E-1, 0.00000E+0, 0.00000E+0,1.00000,1,  100.0,  9999.000, -9999.000,   1,1.0000
     3,'1 ',   718.740,   164.930,   500.000,  -100.000,1.03000,     0,   900.000, 0.00000E+0, 2.50000E-1, 0.00000E+0, 0.00000E+0,1.00000,1,  100.0,  9999.000, -9999.000,   2,1.0000
     4,'1 ',   700.000,   191.539,   500.000,  -100.000,1.01000,     0,   900.000, 0.00000E+0, 2.50000E-1, 0.00000E+0, 0.00000E+0,1.00000,1,  100.0,  9999.000, -9999.000,   2,1.0000
0 / END OF GENERATOR DATA, BEGIN BRANCH DATA
     5,     6,'1 ', 2.50000E-3, 2.50000E-2,   0.04380, 2000.00,    0.00,    0.00,  0.00000,  0.00000,  0.00000,  0.00000,1,1,   0.00,   1,1.0000
     6,     7,'1 ', 1.00000E-3, 1.00000E-2,   0.01750, 2000.00,    0.00,    0.00,  0.00000,  0.00000,  0.00000,  0.00000,1,1,   0.00,   1,1.0000
     7,     8,'1 ', 1.10000E-2, 1.10000E-1,   0.19250,  199.00,    0.00,    0.00,  0.00000,  0.00000,  0.00000,  0.00000,1,1,   0.00,   1,1.0000
     7,    12,'1 ', 1.10000E-2, 1.10000E-1,   0.19250,  199.00,    0.00,    0.00,  0.00000,  0.00000,  0.00000,  0.00000,1,1,   0.00,   1,1.0000
     8,     9,'1 ', 1.10000E-2, 1.10000E-1,   0.19250,  199.00,    0.00,    0.00,  0.00000,  0.00000,  0.00000,  0.00000,1,1,   0.00,   1,1.0000
     9,    10,'1 ', 1.00000E-3, 1.00000E-2,   0.01750, 2000.00,    0.00,    0.00,  0.00000,  0.00000,  0.00000,  0.00000,1,1,   0.00,   2,1.0000
     9,    12,'1 ', 1.10000E-2, 1.10000E-1,   0.19250,  199.00,    0.00,    0.00,  0.00000,  0.00000,  0.00000,  0.00000,1,1,   0.00,   1,1.0000
    10,    11,'1 ', 2.50000E-3, 2.50000E-2,   0.04380, 2000.00,    0.00,    0.00,  0.00000,  0.00000,  0.00000,  0.00000,1,1,   0.00,   2,1.0000
0 / END OF BRANCH DATA, BEGIN TRANSFORMER DATA
     1,     5,     0,'1 ',1,1,1, 0.00000E+0, 0.00000E+0,2,'            ',1,   1,1.0000,   0,1.0000,   0,1.0000,   0,1.0000,'            '
 0.00000E+0, 1.67000E-2,   100.00
1.00000,  22.000,   0.000,     0.00,     0.00,     0.00, 0,      0, 1.10000, 0.90000, 1.10000, 0.90000,  33, 0, 0.00000, 0.00000,  0.000
1.00000, 230.000
     2,     6,     0,'1 ',1,1,1, 0.00000E+0, 0.00000E+0,2,'            ',1,   1,1.0000,   0,1.0000,   0,1.0000,   0,1.0000,'            '
 0.00000E+0, 1.67000E-2,   100.00
1.00000,  22.000,   0.000,     0.00,     0.00,     0.00, 0,      0, 1.10000, 0.90000, 1.10000, 0.90000,  33, 0, 0.00000, 0.00000,  0.000
1.00000, 230.000
     3,    11,     0,'1 ',1,1,1, 0.00000E+0, 0.00000E+0,2,'            ',1,   2,1.0000,   0,1.0000,   0,1.0000,   0,1.0000,'            '
 0.00000E+0, 1.50000E-2,   100.00
1.00000,   0.000,   0.000,     0.00,     0.00,     0.00, 0,      0, 1.10000, 0.90000, 1.10000, 0.90000,  33, 0, 0.00000, 0.00000,  0.000
1.00000,   0.000
     4,    10,     0,'1 ',1,1,1, 0.00000E+0, 0.00000E+0,2,'            ',1,   2,1.0000,   0,1.0000,   0,1.0000,   0,1.0000,'            '
 0.00000E+0, 1.50000E-2,   100.00
1.00000,   0.000,   0.000,     0.00,     0.00,     0.00, 0,      0, 1.10000, 0.90000, 1.10000, 0.90000,  33, 0, 0.00000, 0.00000,  0.000
1.00000,   0.000
0 / END OF TRANSFORMER DATA, BEGIN AREA DATA
0 / END OF AREA DATA, BEGIN TWO-TERMINAL DC DATA
0 / END OF TWO-TERMINAL DC DATA, BEGIN VSC DC LINE DATA
0 / END OF VSC DC LINE DATA, BEGIN IMPEDANCE CORRECTION DATA
0 / END OF IMPEDANCE CORRECTION DATA, BEGIN MULTI-TERMINAL DC DATA
0 / END OF MULTI-TERMINAL DC DATA, BEGIN MULTI-SECTION LINE DATA
0 / END OF MULTI-SECTION LINE DATA, BEGIN ZONE DATA
0 / END OF ZONE DATA, BEGIN INTER-AREA TRANSFER DATA
0 / END OF INTER-AREA TRANSFER DATA, BEGIN OWNER DATA
0 / END OF OWNER DATA, BEGIN FACTS DEVICE DATA
0 / END OF FACTS DEVICE DATA, BEGIN SWITCHED SHUNT DATA
0 / END OF SWITCHED SHUNT DATA, BEGIN GNE DATA
0 / END OF GNE DATA, BEGIN INDUCTION MACHINE DATA
0 / END OF INDUCTION MACHINE DATA
Q
