TLTK/Dynamic Thay Huy/Vi du minh hoa/Vd 04 - Power oscillations/Kundur System/kundur.txt

 Reading IC, SBASE, REV, XFRRAT, NXFRAT, BASFRQ...

 Reading two line case heading...

 Reading bus data...

 Reading load data...

 Reading fixed bus shunt data...

 Reading generator data...

 Reading non-transformer branch data...

 Reading transformer data...

 Reading area interchange data...

 Reading two-terminal dc line data...

 Reading VSC dc line data...

 Reading transformer impedance correction data...

 Reading multi-terminal dc line data...

 Reading multi-section line data...

 Reading zone name data...

 Reading inter-area transfer data...

 Reading owner name data...

 Reading FACTS device data...

 Reading switched shunt data...

 Reading GNE device data...

 Reading induction machine data...

 Ordering network...
 Diagonals = 11   Off-diagonals = 12   Maximum size = 22

  ITER       DELTAP      BUS         DELTAQ      BUS        DELTA/V/      BUS       DELTAANG      BUS
   0        17.6700(        9   )    2.7013(        9   )
                                                             0.06271(        8   )   0.52912(        1   )
   1         1.6469(        9   )    2.1394(        6   )
                                                             0.44640(        8   )   0.28060(        2   )
   2         4.9978(        9   )    4.6901(        1   )
                                                             0.64844(        7   )   0.52979(        1   )
   3         7.5695(        7   )    0.9028(        2   )
                                                             0.20990(        4   )   0.25361(        1   )
   4         2.2433(        7   )    0.6121(        6   )
                                                             0.15333(        2   )   0.05631(        7   )
   5         0.1963(        7   )    0.0494(        6   )
                                                             0.00176(        7   )   0.00302(        1   )
   6         0.0007(        7   )    0.0003(        6   )


 Reached tolerance in 6 iterations

 Largest mismatch:      0.07 MW      0.02 Mvar      0.08 MVA at bus 7 [7           230.00]
 System total absolute mismatch:                    0.16 MVA

 SWING BUS SUMMARY:
   BUS# X-- NAME --X BASKV      PGEN     PMAX    PMIN      QGEN     QMAX    QMIN
      3 3           22.000     718.7   9999.0 -9999.0     164.9    500.0  -100.0

 Generator conversion completed using ZSORCE

 2 loads converted during this step

 2 of 2 loads converted
 Ordering network...
 Diagonals = 12   Off-diagonals = 13   Maximum size = 24

 12 diagonal and 13 off-diagonal elements
 Out of file data--switch to terminal input mode

 Generator models use:
  CONS        1-    56
  STATES      1-    24

 Excitation System models use:
  CONS       57-    80
  STATES     25-    32

 Turbine Governor models use:
  CONS       81-   124
  STATES     33-    48
  VARS        1-     8


 SUMMARY OF MODELS READ:

 GENS:  GENROU
           4

 EXSYS: SEXS
           4

 GOVS:  TGOV2
           4

 NEXT AVAILABLE ADDRESSES ARE:
    CON  STATE    VAR   ICON
    125     49      9      1

 Only PSS/E supplied models in case. Compilation is not required

 4 Output channels have been added


 Next available addresses are:
   CHANNEL   VAR   ICON
        5      9      1

 4 Output channels have been added


 Next available addresses are:
   CHANNEL   VAR   ICON
        9      9      1

 12 Output channels have been added


 Next available addresses are:
   CHANNEL   VAR   ICON
       21     21     13

 1 Output channels have been added


 Next available addresses are:
   CHANNEL   VAR   ICON
       22     21     13
   1  0.20          7 [7           230.00]    -0.1901E-04    -0.4864E-05

     PTI INTERACTIVE POWER SYSTEM SIMULATOR--PSS(R)E     TUE, JUN 01 2021   9:00
 KUNDUR 4 MACHINE 12 BUS SYSTEM


 INITIAL CONDITION LOAD FLOW USED 1 ITERATIONS

 ----------------------------- MACHINE INITIAL CONDITIONS -----------------------------
   BUS# X-- NAME --X BASKV ID  ETERM   EFD    POWER    VARS   P.F.  ANGLE   ID     IQ
      1 1           22.000 1  1.0300 1.9418  699.98  184.04 0.9671  70.97 0.6616 0.4147
      2 2           22.000 1  1.0100 2.0195  699.98  231.92 0.9493  60.22 0.7063 0.3991
      3 3           22.000 1  1.0300 1.9414  718.73  164.93 0.9747  44.69 0.6717 0.4261
      4 4           22.000 1  1.0100 1.9621  700.00  191.53 0.9645  33.60 0.6846 0.4107
   1  0.18E-02      3 [3           22.000]     0.1795E-06    -0.5761E-08

 INITIAL CONDITIONS CHECK O.K.

 Channel output file is "kundur.out"

 Channel output file is "kundur.out"

    TIME X- VALUE --X X--------- IDENTIFIER ---------X X- VALUE --X X--------- IDENTIFIER ---------X
 -0.0040   0.0000     SPD      1[1           22.000]1    0.0000     SPD      2[2           22.000]1
     3     0.0000     SPD      3[3           22.000]1    0.0000     SPD      4[4           22.000]1
     5     6.9998     POWR     1[1           22.000]1    6.9998     POWR     2[2           22.000]1
     7     7.1873     POWR     3[3           22.000]1    7.0000     POWR     4[4           22.000]1
     9     1.0300     VOLT      1 [1           22.000]   1.0100     VOLT      2 [2           22.000]
    11     1.0300     VOLT      3 [3           22.000]   1.0100     VOLT      4 [4           22.000]
    13     1.0066     VOLT      5 [5           230.00]  0.97851     VOLT      6 [6           230.00]
    15    0.96177     VOLT      7 [7           230.00]  0.95105     VOLT      8 [8           230.00]
    17    0.97512     VOLT      9 [9           230.00]  0.98704     VOLT     10 [10          230.00]
    19     1.0114     VOLT     11 [11          230.00]  0.95105     VOLT     12 [12          230.00]
    21     1.0397     VREF     1[1           22.000]1

  1.0000   0.0000     -4.60792E-09 -1.45511E-08 -9.70085E-09   6.9998       6.9998
     7     7.1873       7.0000       1.0300       1.0100       1.0300       1.0100
    13     1.0066      0.97851      0.96177      0.95105      0.97512      0.98704
    19     1.0114      0.95105       1.0397

VREF at bus 1 [1           22.000] machine "1") changed from 1.0397 to 1.05

 Channel output file is "kundur.out"

    TIME X- VALUE --X X--------- IDENTIFIER ---------X X- VALUE --X X--------- IDENTIFIER ---------X
  1.0000   0.0000     SPD      1[1           22.000]1  -4.60792E-09 SPD      2[2           22.000]1
     3   -1.45511E-08 SPD      3[3           22.000]1  -9.70085E-09 SPD      4[4           22.000]1
     5     6.9998     POWR     1[1           22.000]1    6.9998     POWR     2[2           22.000]1
     7     7.1873     POWR     3[3           22.000]1    7.0000     POWR     4[4           22.000]1
     9     1.0300     VOLT      1 [1           22.000]   1.0100     VOLT      2 [2           22.000]
    11     1.0300     VOLT      3 [3           22.000]   1.0100     VOLT      4 [4           22.000]
    13     1.0066     VOLT      5 [5           230.00]  0.97851     VOLT      6 [6           230.00]
    15    0.96177     VOLT      7 [7           230.00]  0.95105     VOLT      8 [8           230.00]
    17    0.97512     VOLT      9 [9           230.00]  0.98704     VOLT     10 [10          230.00]
    19     1.0114     VOLT     11 [11          230.00]  0.95105     VOLT     12 [12          230.00]
    21     1.0500     VREF     1[1           22.000]1

 10.9996 -2.50626E-04 -2.39927E-04 -1.49647E-04 -1.56031E-04   7.0283       7.0237
     7     7.2072       7.0190       1.0403       1.0103       1.0300       1.0100
    13     1.0142      0.98189      0.96514      0.95355      0.97579      0.98735
    19     1.0115      0.95355       1.0500

 21.0012 -2.34482E-04 -2.27495E-04 -2.23062E-04 -2.21791E-04   7.0116       7.0145
     7     7.2264       7.0374       1.0402       1.0102       1.0300       1.0100
    13     1.0143      0.98209      0.96555      0.95434      0.97597      0.98739
    19     1.0115      0.95434       1.0500

 30.0009 -2.32999E-04 -2.33172E-04 -2.09016E-04 -2.11477E-04   7.0287       7.0259
     7     7.2008       7.0140       1.0402       1.0101       1.0300       1.0100
    13     1.0141      0.98166      0.96486      0.95322      0.97569      0.98730
    19     1.0115      0.95322       1.0500

 Channel 1 : bus 1 not found

 Channel 2 : bus 2 not found

 Channel 3 : bus 3 not found

 Channel 4 : bus 4 not found

 Channel 5 : bus 1 not found

 Channel 6 : bus 2 not found

 Channel 7 : bus 3 not found

 Channel 8 : bus 4 not found

 Channel 21 : bus 1 not found
